-----BEGIN RSA PRIVATE KEY-----
MIIEogIBAAKCAQEAoUK5i1eXC3A8gJjTCgMxYnUWuBS8ZVP3GZNETxOkTY1J5uUO
0xP1HBF86RpzIvnAntmPuGJntw1lYAvJkz4+tkq6bpYhycw81vogLsUjPMUsRwcT
MT3DghY1GFH7rO/wFvP05dCPfUFTOJv5aViPHPDyXxMOoa2wqXm+PR10b3rpFipU
OObkLhsw01RrkBT8ZcS85fI+7LIGQAu1MfcUihBbTh2D/W+U2MPGhG8mjUtxIbze
WLrEC6I/e5K2zy+6J4AeVJnS9bv6NRFATOsIz7ETxRjGqSHQx6/RIoeqlDhCkTMI
c57RDMl++w3wegvrzNS3TrpXpOuz0vYjCTprIwIDAQABAoIBABVBNC93hgMN8guJ
GRfSv+mYQTxWD1bTsFgAnxpFHnzSSJFUU5XipYXjkDExOUe833SQfG7zGXR5IYl9
RD5SD/X694On6iAs+T/ki+VeOnzCCEn8Vr1AxMoanzjrZV6v6Vc9JGQ+DwuVVqC5
fjAyafqIj4mUe3M373cHAtoPTc97j1ibUayEcLzhzv5nom6IcrV5PraajoaJ+aL0
ywhyOkbbzNHUk4Ri0WQyTPIg3mfbe699AGtMaOHfHKlF+NhgAJtm8uQYridMWn7D
hwG8VHQpZzZyiQOY+EPTRbK6ZKM6bIQa9iDd3d3AZR5SQne0L+Hr96LMGWYs8W0q
o+vOMAECgYEA83w0+TGOx9upEj8aOiFESulmqgjlU+CCX3Nh6AJIUTOEP8tBuF8F
tnEqPYXvjp9n0EVTBne1hCfR8ddzhPDycZZDVWT0MKGAIl+9s2CqZyPGW3gyrfk+
CjDeSF5afjRwm8Xx/cgTEuvuTXXzA/8EYHRQ2UtmJa2QwEdGdHsKjyMCgYEAqYya
L3fIGXAQ6lpq5AR0EnVvFFmLnD3IZJBes/VhRZaAJNP2QB73en/pKgau/vvDKQqg
QjSwe92mQ1DxbrsvFo7/jBdQNt4lnzHKov6HOFQydXHkgxQAliO5XXAQvbkDdy6c
bwY70iyGd3DaLJ1ymoQ0KH8ZRaL/63s01gScdAECgYAX/jNSIvoI47JjY+h3tfN+
1kURmFLQ0xzFvx70t9Tce5EaoDLXsjVj5v7clSgoC7k1Ir+tsXonjaz4gdyWSw/4
9W+pKIuPhzqTKJAO7wWbqEDRnqSP1DGy22HsC7ArI4u9LeJMubx3btxKscbCrAyI
XK3i27UzHUlYSS2+KKm/tQKBgBr8XQIXH4sk8hxK3d6C8vKJLG/hvL3We5G+BMTB
1oSb6rNx5SzZgOxHdZYR0EKXUb2zikRfXIOqiK8IMBU+x8TgZ74la8f/3Z8T7ru4
pU8K36kfwo42Xc2HzBYaIx//VZTfn1hwdo8CNTjHhoI5YSdEyYR0jlIuGmuhhYxW
2YwBAoGAD0I3RS+GesAxpN7qTC60k/RyFc2ZmoeMWAz5hHk/CUjK/XXWTt7Gue/C
XJ1P2l7y6eDmVRv5upit1MvI1L96/szhZeACFqNMvdaIivT+Bb7Vf7RM+rkfGSOL
doAXMb4/evzpozIvuYnegZEDVZFT3ab6rCZE1oKnQFVIgAkv/m0=
-----END RSA PRIVATE KEY-----
